REMARK SMILES CC(C)NC(=O)c1ccco1
REMARK SMILES IDX 4 1 5 2 6 3 2 5 1 6 3 7 7 8 8 9 11 10 9 11 10 12
REMARK H PARENT 4 4
ROOT
ATOM      1  N   UNL     1       1.456  -0.037  -0.164  1.00  0.00    -0.347 N 
ATOM      2  C   UNL     1       2.260   0.932   0.301  1.00  0.00     0.287 C 
ATOM      3  O   UNL     1       1.844   1.969   0.820  1.00  0.00    -0.266 OA
ATOM      4  H   UNL     1       1.889  -0.852  -0.573  1.00  0.00     0.164 HD
ENDROOT
BRANCH   1   5
ATOM      5  C   UNL     1      -0.004  -0.017  -0.130  1.00  0.00     0.076 C 
ATOM      6  C   UNL     1      -0.516  -0.487   1.242  1.00  0.00     0.030 C 
ATOM      7  C   UNL     1      -0.553  -0.888  -1.267  1.00  0.00     0.030 C 
ENDBRANCH   1   5
BRANCH   2   8
ATOM      8  C   UNL     1       3.708   0.687   0.162  1.00  0.00     0.191 A 
ATOM      9  C   UNL     1       4.402  -0.368  -0.371  1.00  0.00     0.056 A 
ATOM     10  O   UNL     1       4.581   1.631   0.619  1.00  0.00    -0.459 OA
ATOM     11  C   UNL     1       5.783  -0.058  -0.234  1.00  0.00     0.043 A 
ATOM     12  C   UNL     1       5.835   1.165   0.372  1.00  0.00     0.196 A 
ENDBRANCH   2   8
TORSDOF 2
